/*--------------------------------*- C++ -*----------------------------------*\
| =========                 |                                                 |
| \\      /  F ield         | foam-extend: Open Source CFD                    |
|  \\    /   O peration     | Version:  3.0                                   |
|   \\  /    A nd           | Web:         http://www.extend-project.de       |
|    \\/     M anipulation  |                                                 |
\*---------------------------------------------------------------------------*/
FoamFile
{
    version     2.0;
    format      binary;
    class       dictionary;
    location    "constant";
    object      mechanicalProperties;
}
// * * * * * * * * * * * * * * * * * * * * * * * * * * * * * * * * * * * * * //

planeStress     no;

mechanical
{
    type            multiMaterial;

    laws
    {
        wire
        {

          type elastoPlasticKirchhoff;
          rho         rho [ 1 -3 0 0 0 0 0 ] 2700;
          E           E [ 1 -1 -2 0 0 0 0 ] 210e9;
          nu          nu [ 0 0 0 0 0 0 0 ] 0.3;


            fileName        "$FOAM_CASE/constant/plasticStrainVsYieldStress";
            outOfBounds     clamp;

        }

        die
        {
            type        elasticKirchhoff;
            rho         rho [ 1 -3 0 0 0 0 0 ] 7800;
            E           E [ 1 -1 -2 0 0 0 0 ] 6e+11;
            nu          nu [ 0 0 0 0 0 0 0 ] 0.3;
        }
    }
}


// ************************************************************************* //
