/*--------------------------------*- C++ -*----------------------------------*\
| =========                 |                                                 |
| \\      /  F ield         | foam-extend: Open Source CFD                    |
|  \\    /   O peration     | Version:  3.0                                   |
|   \\  /    A nd           | Web:         http://www.extend-project.de       |
|    \\/     M anipulation  |                                                 |
\*---------------------------------------------------------------------------*/
FoamFile
{
    version     2.0;
    format      ascii;
    class       volVectorField;
    location    "0";
    object      DU;
}
// * * * * * * * * * * * * * * * * * * * * * * * * * * * * * * * * * * * * * //

dimensions      [0 1 0 0 0 0 0];

internalField   uniform ( 0 0 0 );

boundaryField
{
    down
    {
        type            solidSymmetry;
        patchType       symmetryPlane;
        value           uniform (0 0 0);
    }
    axis
    {
        type            empty;

    }
    right
    {
        type            solidTraction;
        traction        uniform ( 0 0 0 );
        pressure        uniform 0;
        value           uniform (0 0 0);
    }
    up
    {
/*       type   fixedDisplacement;*/
/*       value uniform (0 0.01e-3 0);*/
        type            fixedDisplacement;
        displacementSeries
        {
            fileName    "$FOAM_CASE/constant/timeVsDisp";
            outOfBounds clamp;
        }
        pressure        uniform 0;
        value           uniform (0 0 0);
    }
    notchedFace
    {
        type            solidTraction;
        traction        uniform ( 0 0 0 );
        pressure        uniform 0;
        value           uniform (0 0 0);
    }
    front
    {
        type            solidWedge;
        patchType       wedge;
        value           uniform (0 0 0);
    }
    back
    {
        type            solidWedge;
        patchType       wedge;
        value           uniform (0 0 0);
    }
 

}


// ************************************************************************* //
